CityArea.dss
clear

New object=circuit.dss_grid basekv=20

New linecode.12-20_3x1x185Al nphases=3 R1=0.164 X1=0.11 B1=91.10619 R0=0.805 X0=0.11 B0=91.10619
New linecode.6-12_3x1x150Cu nphases=3 R1=0.123 X1=0.1 B1=0 R0=0.369 X0=0.3 B0=0
New linecode.3-6_3x1x240Cu nphases=3 R1=0.0754 X1=0.11 B1=91.10619 R0=0.2262 X0=0.33 B0=0
New linecode.DC-Line nphases=3 R1=0.123 X1=0.1

// -- UNDERGROUND SECTOR -------------------------------------------------------------------------------------------------------------------------------------------------------------------
New line.UG_Line bus1=SourceBus bus2=UG_BB_20kV linecode=12-20_3x1x185Al length=3

New transformer.UG_1_TR windings=2 buses=(UG_BB_20kV UG_BB_2kV) conns='delta wye' kvs=(20 2) kvas=(2000 2000) %Rs=[0.93 0] XHL=6 %imag=1.5
New transformer.UG_2_TR windings=2 buses=(UG_BB_20kV UG_BB_2kV) conns='delta wye' kvs=(20 2) kvas=(2000 2000) %Rs=[0.93 0] XHL=6 %imag=1.5

New transformer.UG_Serv_TR windings=2 buses=(UG_BB_2kV UG_Serv_BB) conns='delta wye' kvs=(2 0.4) kvas=(400 400) %Rs=[1 0] XHL=6 %imag=1.6

New load.UG_Serv1_AC-Load bus1=UG_Serv_BB phases=3 kv=0.4 kw=80.0 pf=0.9
New load.UG_Serv2_AC-Load bus1=UG_Serv_BB phases=3 kv=0.4 kw=120.0 pf=0.9


//// -- DC Side ----------------------------------
New transformer.UG_PWM winding=2 buses=(UG_BB_2kV UG_BB_LVDC) conns='delta wye' kvs=(2 1.5) kvas=(800 800) %Rs=(0 0) XHL=0.000000001 %imag=0
New load.UG_DC-Load bus1=UG_BB_LVDC phases=3 kv=1.5 kw=200 pf=1

New transformer.UGS_PWM winding=2 buses=(UG_BB_2kV UGS_BB) conns='delta wye' kvs=(2 1.5) kvas=(800 800) %Rs=(0 0) XHL=0.000000001 %imag=0
New load.UGS_DC-Load bus1=UGS_BB phases=3 kv=1.5 kw=200 pf=1
New generator.UGS_BESS bus1=UGS_BB phases=3 kv=1.5 kw=-10 kvar=0 model=3

New transformer.UGS_DC-DC-Conv winding=2 buses=(UGS_BB UGS_PV_BB) conns='delta wye' kvs=(1.5 0.75) kvas=(50 50) %Rs=(0 0) XHL=0.000000001 %imag=0
New generator.UGS_1_PV bus1=UGS_PV_BB phases=3 kv=0.75 kw=15 kvar=0 model=3
New generator.UGS_2_PV bus1=UGS_PV_BB phases=3 kv=0.75 kw=15 kvar=0 model=3
//// -------------------------------------------------
// -------------------------------------------------------------------------------------------------------------------------------------------------------------------------------------------------------------

// -- ROAD SERVICES SECTOR -------------------------------------------------------------------------------------------------------------------------------------------------------------------
New line.RS_Line bus1=SourceBus bus2=RS_BB_20kV linecode=12-20_3x1x185Al length=3
New transformer.RS_TR windings=2 buses=(RS_BB_20kV RS_BB_04kV) conns='delta wye' kvs=(20 0.4) kvas=(400 400) %Rs=[1 0] XHL=6 %imag=1.6
New load.RS_1_AC-Load bus1=RS_BB_04kV phases=3 kv=0.4 kw=40 pf=0.9
New load.RS_2_AC-Load bus1=RS_BB_04kV phases=3 kv=0.4 kw=60 pf=0.9

New line.EV-Charge_Line bus1=RS_BB_04kV bus2=EV-Charge_BB linecode=6-12_3x1x150Cu length=0.05
New load.EV-Charge_AC-Load bus1=EV-Charge_BB phases=3 kv=0.4 kw=40 pf=1

New transformer.EV-Fast_PWM winding=2 buses=(RS_BB_04kV EV-Fast_BB) conns='delta wye' kvs=(0.4 0.6) kvas=(2000 2000) %Rs=(0 0) XHL=0.000000001 %imag=0
New generator.EV-Fast_BESS bus1=EV-Fast_BB phases=3 kv=0.6 kw=10 kvar=0 model=3
New generator.EV-Fast_PV bus1=EV-Fast_BB phases=3 kv=0.6 kw=30 kvar=0 model=3

New transformer.EV-Fast_DC-DC-Conv winding=2 buses=(EV-Fast_BB EV-Fast-Load_Node) conns='delta wye' kvs=(0.6 0.4) kvas=(300 300) %Rs=(0 0) XHL=0.000000001 %imag=0
New load.EV-Fast_DC-Load bus1=EV-Fast-Load_Node phases=3 kv=0.4 kw=50 pf=1
// -------------------------------------------------------------------------------------------------------------------------------------------------------------------------------------------------------------


// -- RESIDENTIAL SECTOR -----------------------------------------------------------------------------------------------------------------------------------------------------------------------
New line.Res-WPG_Line bus1=SourceBus bus2=Res-WPG_BB linecode=12-20_3x1x185Al length=2
New transformer.Res_TR winding=2 buses=(Res-WPG_BB Res_BB) conns='delta wye' kvs=(20 0.4) kvas=(630 630) %Rs=(1 0) XHL=6 %imag=1.6

New line.User_Line bus1=Res_BB bus2=User_BB linecode=6-12_3x1x150Cu length=0.1
New load.User_AC-Load bus1=User_BB phases=3 kv=0.4 kw=200 pf=0.9

New line.Pros_Line bus1=Res_BB bus2=Pros_BB linecode=6-12_3x1x150Cu length=0.05
New load.Pros_1_AC-Load bus1=Pros_BB phases=3 kv=0.4 kw=150 pf=0.9

New transformer.Pros_BESS_PWM winding=2 buses=(Pros_BB Pros_BB_DC1) conns='delta wye' kvs=(0.4 0.6) kvas=(400 400) %Rs=(0 0) XHL=0.000000001 %imag=0
New generator.Pros_BESS bus1=Pros_BB_DC1 phases=3 kv=0.6 kw=-50 kvar=0 model=3
New generator.Pros_DC-Micro-Wind bus1=Pros_BB_DC1 phases=3 kv=0.6 kw=10 kvar=0 model=3

New load.Pros_DC-Load bus1=Pros_BB_DC2 phases=3 kv=0.6 kw=30 kvar=0 model=3 //da eliminare
New transformer.Pros_PV_PWM winding=2 buses=(Pros_BB Pros_BB_DC2) conns='delta wye' kvs=(0.4 0.6) kvas=(400 400) %Rs=(0 0) XHL=0.000000001 %imag=0
New generator.Pros_PV bus1=Pros_BB_DC2 phases=3 kv=0.6 kw=50 kvar=0 model=3
//New load.Pros_DC-Load bus1=Pros_BB_DC2 phases=3 kv=0.6 kw=30 kvar=0 model=3

//New line.Pros-Pros_DC-Line bus1=Pros_BB_DC1 bus2=Pros_BB_DC2 linecode=DC-Line length=0.02

// -------------------------------------------------------------------------------------------------------------------------------------------------------------------------------------------------------------


// -- WIND GENERAGTOR SECTOR--------------------------------------------------------------------------------------------------------------------------------------------------------------
New transformer.WPG_TR winding=2 buses=(Res-WPG_BB WPG_BB1) conns='delta wye' kvs=(20 2) kvas=(2000 2000) %Rs=(0.93 0) XHL=6 %imag=1.5
//New transformer.ResWPG_TR winding=2 buses=(WPG_BB1 Res_BB) conns='delta wye' kvs=(2 0.4) kvas=(630 630) %Rs=(1 0) XHL=6 %imag=1.6

New line.WPG_Line bus1=WPG_BB1 bus2=WPG_BB2 linecode=3-6_3x1x240Cu length=1
New generator.WPG_1_wind bus1=WPG_BB2 phases=3 kv=2 kw=140 pf=0.84
New generator.WPG_2_wind bus1=WPG_BB2 phases=3 kv=2 kw=140 pf=0.87

New transformer.WPG_PWM winding=2 buses=(WPG_BB1 WPG_PV_BB) conns='delta wye' kvs=(2 0.6) kvas=(2000 2000) %Rs=(0 0) XHL=0.00000001 %imag=0
New generator.WPG_BESS bus1=WPG_PV_BB phases=3 kv=0.6 kw=-100 kvar=0 model=3
New generator.WPG_PV bus1=WPG_PV_BB phases=3 kv=0.6 kw=40 kvar=0 model=3

New line.Pros-EV_DC-Line bus1=Pros_BB_DC1 bus2=EV-Fast_BB linecode=DC-Line length=0.02


// -------------------------------------------------------------------------------------------------------------------------------------------------------------------------------------------------------------





Solve

//Show voltage LN nodes

//Show Current Elements

//Show Powers kVA Elements

